<?xml version="1.0" encoding="ISO-8859-1"?>
<febio_spec version="4.0">
	<Module type="biphasic"/>
	<Control>
		<analysis>TRANSIENT</analysis>
		<time_steps>210000</time_steps>
		<step_size>1</step_size>
		<plot_zero_state>0</plot_zero_state>
		<plot_range>0,-1</plot_range>
		<plot_level>PLOT_MAJOR_ITRS</plot_level>
		<output_level>OUTPUT_MAJOR_ITRS</output_level>
		<plot_stride>1</plot_stride>
		<adaptor_re_solve>1</adaptor_re_solve>
		<time_stepper type="default">
			<max_retries>5</max_retries>
			<opt_iter>11</opt_iter>
			<dtmin>0</dtmin>
			<dtmax lc="2">0.1</dtmax>
			<aggressiveness>0</aggressiveness>
			<cutback>0.5</cutback>
			<dtforce>0</dtforce>
		</time_stepper>
		<solver type="biphasic">
			<symmetric_stiffness>non-symmetric</symmetric_stiffness>
			<equation_scheme>staggered</equation_scheme>
			<equation_order>default</equation_order>
			<optimize_bw>0</optimize_bw>
			<lstol>0.9</lstol>
			<lsmin>0.01</lsmin>
			<lsiter>5</lsiter>
			<max_refs>50</max_refs>
			<check_zero_diagonal>0</check_zero_diagonal>
			<zero_diagonal_tol>0</zero_diagonal_tol>
			<force_partition>0</force_partition>
			<reform_each_time_step>1</reform_each_time_step>
			<reform_augment>0</reform_augment>
			<diverge_reform>1</diverge_reform>
			<min_residual>1e-20</min_residual>
			<max_residual>0</max_residual>
			<dtol>0.001</dtol>
			<etol>0.01</etol>
			<rtol>0</rtol>
			<rhoi>-2</rhoi>
			<alpha>1</alpha>
			<beta>0.25</beta>
			<gamma>0.5</gamma>
			<logSolve>0</logSolve>
			<arc_length>0</arc_length>
			<arc_length_scale>0</arc_length_scale>
			<ptol>0.01</ptol>
			<mixed_formulation>0</mixed_formulation>
			<qn_method type="BFGS">
				<max_ups>50</max_ups>
				<max_buffer_size>0</max_buffer_size>
				<cycle_buffer>1</cycle_buffer>
				<cmax>100000</cmax>
			</qn_method>
		</solver>
	</Control>
	<Globals>
		<Constants>
			<T>0</T>
			<P>0</P>
			<R>8.31446</R>
			<Fc>96485.3</Fc>
		</Constants>
	</Globals>
	<Material>
		<material id="1" name="Material1" type="biphasic">
			<phi0>0.1</phi0>
			<fluid_density>1</fluid_density>
			<tau>0</tau>
			<solid type="neo-Hookean">
				<density>1</density>
				<E>0.025</E>
				<v>0.3</v>
			</solid>
			<permeability type="perm-const-iso">
				<perm>0.001</perm>
			</permeability>
		</material>
		<material id="2" name="Material2" type="rigid body">
			<density>1</density>
			<E>1</E>
			<v>0</v>
		</material>
	</Material>
	<Mesh>
		<Nodes name="Object1">
			<node id="1">0,0,0</node>
			<node id="2">3,0,0</node>
			<node id="3">2.85316955,0.927050983,0</node>
			<node id="4">2.42705098,1.76335576,0</node>
			<node id="5">1.76335576,2.42705098,0</node>
			<node id="6">0.927050983,2.85316955,0</node>
			<node id="7">1.8369702e-16,3,0</node>
			<node id="8">0,0,0.600001706</node>
			<node id="9">3,0,0.600001706</node>
			<node id="10">2.85316955,0.927050983,0.600001706</node>
			<node id="11">2.42705098,1.76335576,0.600001706</node>
			<node id="12">1.76335576,2.42705098,0.600001706</node>
			<node id="13">0.927050983,2.85316955,0.600001706</node>
			<node id="14">1.8369702e-16,3,0.600001706</node>
			<node id="15">0,0,0.960002729</node>
			<node id="16">3,0,0.960002729</node>
			<node id="17">2.85316955,0.927050983,0.960002729</node>
			<node id="18">2.42705098,1.76335576,0.960002729</node>
			<node id="19">1.76335576,2.42705098,0.960002729</node>
			<node id="20">0.927050983,2.85316955,0.960002729</node>
<!-- ... 162 like lines cut -->
		</Nodes>
		<Nodes name="Object2">
			<node id="183">0,0,1.4999</node>
			<node id="184">0.7,0,1.4999</node>
			<node id="185">0.665739561,0.216311896,1.4999</node>
			<node id="186">0.566311896,0.411449677,1.4999</node>
			<node id="187">0.411449677,0.566311896,1.4999</node>
			<node id="188">0.216311896,0.665739561,1.4999</node>
			<node id="189">4.2862638e-17,0.7,1.4999</node>
			<node id="190">1.4,0,1.4999</node>
			<node id="191">1.33147912,0.432623792,1.4999</node>
			<node id="192">1.13262379,0.822899353,1.4999</node>
			<node id="193">0.822899353,1.13262379,1.4999</node>
			<node id="194">0.432623792,1.33147912,1.4999</node>
			<node id="195">8.57252759e-17,1.4,1.4999</node>
			<node id="196">2.1,0,1.4999</node>
			<node id="197">1.99721868,0.648935688,1.4999</node>
			<node id="198">1.69893569,1.23434903,1.4999</node>
			<node id="199">1.23434903,1.69893569,1.4999</node>
			<node id="200">0.648935688,1.99721868,1.4999</node>
			<node id="201">1.28587914e-16,2.1,1.4999</node>
			<node id="202">2.8,0,1.4999</node>
<!-- ... 42 like lines cut -->
		</Nodes>
		<Elements type="penta6" name="Part1">
			<elem id="1">1,2,3,8,9,10</elem>
			<elem id="2">1,3,4,8,10,11</elem>
			<elem id="3">1,4,5,8,11,12</elem>
			<elem id="4">1,5,6,8,12,13</elem>
			<elem id="5">1,6,7,8,13,14</elem>
			<elem id="6">8,9,10,15,16,17</elem>
			<elem id="7">8,10,11,15,17,18</elem>
			<elem id="8">8,11,12,15,18,19</elem>
			<elem id="9">8,12,13,15,19,20</elem>
			<elem id="10">8,13,14,15,20,21</elem>
			<elem id="11">15,16,17,22,23,24</elem>
			<elem id="12">15,17,18,22,24,25</elem>
			<elem id="13">15,18,19,22,25,26</elem>
			<elem id="14">15,19,20,22,26,27</elem>
			<elem id="15">15,20,21,22,27,28</elem>
			<elem id="16">22,23,24,29,30,31</elem>
			<elem id="17">22,24,25,29,31,32</elem>
			<elem id="18">22,25,26,29,32,33</elem>
			<elem id="19">22,26,27,29,33,34</elem>
			<elem id="20">22,27,28,29,34,35</elem>
<!-- ... 105 like lines cut -->
		</Elements>
		<Elements type="penta6" name="Part2">
			<elem id="126">183,184,185,214,215,216</elem>
			<elem id="127">183,185,186,214,216,217</elem>
			<elem id="128">183,186,187,214,217,218</elem>
			<elem id="129">183,187,188,214,218,219</elem>
			<elem id="130">183,188,189,214,219,220</elem>
		</Elements>
		<Elements type="hex8" name="Part2__2">
			<elem id="131">184,190,191,185,215,221,222,216</elem>
			<elem id="132">185,191,192,186,216,222,223,217</elem>
			<elem id="133">186,192,193,187,217,223,224,218</elem>
			<elem id="134">187,193,194,188,218,224,225,219</elem>
			<elem id="135">188,194,195,189,219,225,226,220</elem>
			<elem id="136">190,196,197,191,221,227,228,222</elem>
			<elem id="137">191,197,198,192,222,228,229,223</elem>
			<elem id="138">192,198,199,193,223,229,230,224</elem>
			<elem id="139">193,199,200,194,224,230,231,225</elem>
			<elem id="140">194,200,201,195,225,231,232,226</elem>
			<elem id="141">196,202,203,197,227,233,234,228</elem>
			<elem id="142">197,203,204,198,228,234,235,229</elem>
			<elem id="143">198,204,205,199,229,235,236,230</elem>
			<elem id="144">199,205,206,200,230,236,237,231</elem>
			<elem id="145">200,206,207,201,231,237,238,232</elem>
			<elem id="146">202,208,209,203,233,239,240,234</elem>
			<elem id="147">203,209,210,204,234,240,241,235</elem>
			<elem id="148">204,210,211,205,235,241,242,236</elem>
			<elem id="149">205,211,212,206,236,242,243,237</elem>
			<elem id="150">206,212,213,207,237,243,244,238</elem>
		</Elements>
		<Surface name="ZeroDisplacement1">
			<tri3 id="1">1,3,2</tri3>
			<tri3 id="2">1,4,3</tri3>
			<tri3 id="3">1,5,4</tri3>
			<tri3 id="4">1,6,5</tri3>
			<tri3 id="5">1,7,6</tri3>
		</Surface>
		<Surface name="ZeroFluidPressure2">
			<tri3 id="1">176,177,178</tri3>
			<tri3 id="2">176,178,179</tri3>
			<tri3 id="3">176,179,180</tri3>
			<tri3 id="4">176,180,181</tri3>
			<tri3 id="5">176,181,182</tri3>
		</Surface>
		<Surface name="SymmetryPlane1">
			<quad4 id="1">1,2,9,8</quad4>
			<quad4 id="2">8,9,16,15</quad4>
			<quad4 id="3">15,16,23,22</quad4>
			<quad4 id="4">22,23,30,29</quad4>
			<quad4 id="5">29,30,37,36</quad4>
			<quad4 id="6">36,37,44,43</quad4>
			<quad4 id="7">43,44,51,50</quad4>
			<quad4 id="8">50,51,58,57</quad4>
			<quad4 id="9">57,58,65,64</quad4>
			<quad4 id="10">64,65,72,71</quad4>
			<quad4 id="11">71,72,79,78</quad4>
			<quad4 id="12">78,79,86,85</quad4>
			<quad4 id="13">85,86,93,92</quad4>
			<quad4 id="14">92,93,100,99</quad4>
			<quad4 id="15">99,100,107,106</quad4>
			<quad4 id="16">106,107,114,113</quad4>
			<quad4 id="17">113,114,121,120</quad4>
			<quad4 id="18">120,121,128,127</quad4>
			<quad4 id="19">127,128,135,134</quad4>
			<quad4 id="20">134,135,142,141</quad4>
<!-- ... 5 like lines cut -->
		</Surface>
		<Surface name="SymmetryPlane2">
			<quad4 id="1">8,14,7,1</quad4>
			<quad4 id="2">15,21,14,8</quad4>
			<quad4 id="3">22,28,21,15</quad4>
			<quad4 id="4">29,35,28,22</quad4>
			<quad4 id="5">36,42,35,29</quad4>
			<quad4 id="6">43,49,42,36</quad4>
			<quad4 id="7">50,56,49,43</quad4>
			<quad4 id="8">57,63,56,50</quad4>
			<quad4 id="9">64,70,63,57</quad4>
			<quad4 id="10">71,77,70,64</quad4>
			<quad4 id="11">78,84,77,71</quad4>
			<quad4 id="12">85,91,84,78</quad4>
			<quad4 id="13">92,98,91,85</quad4>
			<quad4 id="14">99,105,98,92</quad4>
			<quad4 id="15">106,112,105,99</quad4>
			<quad4 id="16">113,119,112,106</quad4>
			<quad4 id="17">120,126,119,113</quad4>
			<quad4 id="18">127,133,126,120</quad4>
			<quad4 id="19">134,140,133,127</quad4>
			<quad4 id="20">141,147,140,134</quad4>
<!-- ... 5 like lines cut -->
		</Surface>
		<Surface name="FixedNormalDisplacement3">
			<quad4 id="1">2,3,10,9</quad4>
			<quad4 id="2">3,4,11,10</quad4>
			<quad4 id="3">4,5,12,11</quad4>
			<quad4 id="4">5,6,13,12</quad4>
			<quad4 id="5">6,7,14,13</quad4>
			<quad4 id="6">9,10,17,16</quad4>
			<quad4 id="7">10,11,18,17</quad4>
			<quad4 id="8">11,12,19,18</quad4>
			<quad4 id="9">12,13,20,19</quad4>
			<quad4 id="10">13,14,21,20</quad4>
			<quad4 id="11">16,17,24,23</quad4>
			<quad4 id="12">17,18,25,24</quad4>
			<quad4 id="13">18,19,26,25</quad4>
			<quad4 id="14">19,20,27,26</quad4>
			<quad4 id="15">20,21,28,27</quad4>
			<quad4 id="16">23,24,31,30</quad4>
			<quad4 id="17">24,25,32,31</quad4>
			<quad4 id="18">25,26,33,32</quad4>
			<quad4 id="19">26,27,34,33</quad4>
			<quad4 id="20">27,28,35,34</quad4>
<!-- ... 105 like lines cut -->
		</Surface>
		<Surface name="SlidingElastic1Secondary">
			<tri3 id="1">183,185,184</tri3>
			<quad4 id="2">185,191,190,184</quad4>
			<quad4 id="3">191,197,196,190</quad4>
			<quad4 id="4">197,203,202,196</quad4>
			<quad4 id="5">203,209,208,202</quad4>
			<tri3 id="6">183,186,185</tri3>
			<quad4 id="7">186,192,191,185</quad4>
			<quad4 id="8">192,198,197,191</quad4>
			<quad4 id="9">198,204,203,197</quad4>
			<quad4 id="10">204,210,209,203</quad4>
			<tri3 id="11">183,187,186</tri3>
			<quad4 id="12">187,193,192,186</quad4>
			<quad4 id="13">193,199,198,192</quad4>
			<quad4 id="14">199,205,204,198</quad4>
			<quad4 id="15">205,211,210,204</quad4>
			<tri3 id="16">183,188,187</tri3>
			<quad4 id="17">188,194,193,187</quad4>
			<quad4 id="18">194,200,199,193</quad4>
			<quad4 id="19">200,206,205,199</quad4>
			<quad4 id="20">206,212,211,205</quad4>
			<tri3 id="21">183,189,188</tri3>
			<quad4 id="22">189,195,194,188</quad4>
			<quad4 id="23">195,201,200,194</quad4>
			<quad4 id="24">201,207,206,200</quad4>
			<quad4 id="25">207,213,212,206</quad4>
		</Surface>
		<Surface name="SlidingElastic1Primary">
			<tri3 id="1">176,177,178</tri3>
			<tri3 id="2">176,178,179</tri3>
			<tri3 id="3">176,179,180</tri3>
			<tri3 id="4">176,180,181</tri3>
			<tri3 id="5">176,181,182</tri3>
		</Surface>
		<Surface name="ZeroDisplacement3">
			<tri3 id="1">176,177,178</tri3>
			<tri3 id="2">176,178,179</tri3>
			<tri3 id="3">176,179,180</tri3>
			<tri3 id="4">176,180,181</tri3>
			<tri3 id="5">176,181,182</tri3>
		</Surface>
		<SurfacePair name="SlidingElastic1">
			<primary>SlidingElastic1Primary</primary>
			<secondary>SlidingElastic1Secondary</secondary>
		</SurfacePair>
	</Mesh>
	<MeshDomains>
		<SolidDomain name="Part1" mat="Material1"/>
		<SolidDomain name="Part2" mat="Material2"/>
		<SolidDomain name="Part2__2" mat="Material2"/>
	</MeshDomains>
	<Boundary>
		<bc name="ZeroDisplacement1" node_set="@surface:ZeroDisplacement1" type="zero displacement">
			<x_dof>1</x_dof>
			<y_dof>1</y_dof>
			<z_dof>1</z_dof>
		</bc>
		<bc name="ZeroFluidPressure2" node_set="@surface:ZeroFluidPressure2" type="zero fluid pressure"/>
		<bc name="ZeroDisplacement3" node_set="@surface:ZeroDisplacement3" type="zero displacement">
			<x_dof>1</x_dof>
			<y_dof>1</y_dof>
			<z_dof>0</z_dof>
		</bc>
	</Boundary>
	<Rigid>
		<rigid_bc name="RigidConstraint1" type="rigid_fixed">
			<rb>Material2</rb>
			<Rx_dof>1</Rx_dof>
			<Ry_dof>1</Ry_dof>
			<Rz_dof>0</Rz_dof>
			<Ru_dof>1</Ru_dof>
			<Rv_dof>1</Rv_dof>
			<Rw_dof>1</Rw_dof>
		</rigid_bc>
		<rigid_load name="RigidLoad1" type="rigid_force">
			<rb>Material2</rb>
			<dof>Rz</dof>
			<value lc="1">-0.025</value>
			<load_type>LOAD</load_type>
			<relative>0</relative>
		</rigid_load>
	</Rigid>
	<Contact>
		<contact name="SlidingElastic1" surface_pair="SlidingElastic1" type="sliding-elastic">
			<laugon>PENALTY</laugon>
			<tolerance>0.1</tolerance>
			<gaptol>0</gaptol>
			<penalty>10</penalty>
			<auto_penalty>1</auto_penalty>
			<update_penalty>0</update_penalty>
			<two_pass>0</two_pass>
			<knmult>0</knmult>
			<search_tol>0.01</search_tol>
			<symmetric_stiffness>1</symmetric_stiffness>
			<search_radius>1</search_radius>
			<seg_up>0</seg_up>
			<tension>0</tension>
			<minaug>0</minaug>
			<maxaug>10</maxaug>
			<node_reloc>0</node_reloc>
			<fric_coeff>0</fric_coeff>
			<smooth_aug>0</smooth_aug>
			<flip_primary>0</flip_primary>
			<flip_secondary>0</flip_secondary>
			<shell_bottom_primary>0</shell_bottom_primary>
			<shell_bottom_secondary>0</shell_bottom_secondary>
			<offset>0</offset>
		</contact>
	</Contact>
	<Constraints>
		<constraint name="SymmetryPlane1" surface="SymmetryPlane1" type="symmetry plane">
			<laugon>1</laugon>
			<tol>0.1</tol>
			<penalty>100</penalty>
			<rhs>0</rhs>
			<minaug>0</minaug>
			<maxaug>50</maxaug>
		</constraint>
		<constraint name="SymmetryPlane2" surface="SymmetryPlane2" type="symmetry plane">
			<laugon>1</laugon>
			<tol>0.1</tol>
			<penalty>100</penalty>
			<rhs>0</rhs>
			<minaug>0</minaug>
			<maxaug>50</maxaug>
		</constraint>
		<constraint name="FixedNormalDisplacement3" surface="FixedNormalDisplacement3" type="fixed normal displacement">
			<laugon>1</laugon>
			<tol>0.1</tol>
			<penalty>100</penalty>
			<rhs>0</rhs>
			<minaug>0</minaug>
			<maxaug>50</maxaug>
			<shell_bottom>0</shell_bottom>
		</constraint>
	</Constraints>
	<LoadData>
		<load_controller id="1" name="LC1" type="loadcurve">
			<interpolate>LINEAR</interpolate>
			<extend>CONSTANT</extend>
			<points>
				<pt>0,1</pt>
				<pt>1,1</pt>
			</points>
		</load_controller>
		<load_controller id="2" name="LC2" type="loadcurve">
			<interpolate>LINEAR</interpolate>
			<extend>EXTRAPOLATE</extend>
			<points>
				<pt>0,0.01</pt>
				<pt>1,0.01</pt>
				<pt>1.5,0.01</pt>
				<pt>10000,1000</pt>
			</points>
		</load_controller>
	</LoadData>
	<Output>
		<plotfile type="febio">
			<var type="displacement"/>
			<var type="stress"/>
			<var type="relative volume"/>
			<var type="solid stress"/>
			<var type="effective fluid pressure"/>
			<var type="fluid pressure"/>
			<var type="fluid flux"/>
			<var type="contact pressure"/>
			<var type="contact gap"/>
		</plotfile>
	</Output>
</febio_spec>
