<?xml version="1.0" encoding="ISO-8859-1"?>
<febio_spec version="4.0">
	<Module type="biphasic">
		<units>mm-N-s</units>
	</Module>
	<Control>
		<analysis>TRANSIENT</analysis>
		<time_steps>350000</time_steps>
		<step_size>1</step_size>
		<plot_zero_state>0</plot_zero_state>
		<plot_range>0,-1</plot_range>
		<plot_level>PLOT_MAJOR_ITRS</plot_level>
		<output_level>OUTPUT_MAJOR_ITRS</output_level>
		<plot_stride>1</plot_stride>
		<adaptor_re_solve>1</adaptor_re_solve>
		<time_stepper type="default">
			<max_retries>5</max_retries>
			<opt_iter>11</opt_iter>
			<dtmin>0</dtmin>
			<dtmax lc="1">0.1</dtmax>
			<aggressiveness>0</aggressiveness>
			<cutback>0.5</cutback>
			<dtforce>0</dtforce>
		</time_stepper>
		<solver type="biphasic">
			<symmetric_stiffness>non-symmetric</symmetric_stiffness>
			<equation_scheme>staggered</equation_scheme>
			<equation_order>default</equation_order>
			<optimize_bw>0</optimize_bw>
			<lstol>0.9</lstol>
			<lsmin>0.01</lsmin>
			<lsiter>5</lsiter>
			<max_refs>15</max_refs>
			<check_zero_diagonal>0</check_zero_diagonal>
			<zero_diagonal_tol>0</zero_diagonal_tol>
			<force_partition>0</force_partition>
			<reform_each_time_step>1</reform_each_time_step>
			<reform_augment>0</reform_augment>
			<diverge_reform>1</diverge_reform>
			<min_residual>1e-20</min_residual>
			<max_residual>0</max_residual>
			<dtol>0.001</dtol>
			<etol>0.01</etol>
			<rtol>0</rtol>
			<rhoi>-2</rhoi>
			<alpha>1</alpha>
			<beta>0.25</beta>
			<gamma>0.5</gamma>
			<logSolve>0</logSolve>
			<arc_length>0</arc_length>
			<arc_length_scale>0</arc_length_scale>
			<ptol>0.01</ptol>
			<mixed_formulation>0</mixed_formulation>
			<qn_method type="BFGS">
				<max_ups>10</max_ups>
				<max_buffer_size>0</max_buffer_size>
				<cycle_buffer>1</cycle_buffer>
				<cmax>100000</cmax>
			</qn_method>
		</solver>
	</Control>
	<Globals>
		<Constants>
			<T>0</T>
			<P>0</P>
			<R>8.31446e-06</R>
			<Fc>9.64853e-05</Fc>
		</Constants>
	</Globals>
	<Material>
		<material id="1" name="Material1" type="biphasic">
			<phi0>0.1</phi0>
			<fluid_density>1</fluid_density>
			<tau>0</tau>
			<solid type="neo-Hookean">
				<density>1</density>
				<E>0.025</E>
				<v>0.35</v>
			</solid>
			<permeability type="perm-const-iso">
				<perm>0.001</perm>
			</permeability>
		</material>
		<material id="2" name="Material2" type="rigid body">
			<density>9.81</density>
			<E>1</E>
			<v>0</v>
		</material>
	</Material>
	<Mesh>
		<Nodes name="Object1">
			<node id="1">0,0,0</node>
			<node id="2">1.20004388,0,0</node>
			<node id="3">1.14130955,0.370833952,0</node>
			<node id="4">0.970855889,0.705368092,0</node>
			<node id="5">0.705368092,0.970855889,0</node>
			<node id="6">0.370833952,1.14130955,0</node>
			<node id="7">7.34814945e-17,1.20004388,0</node>
			<node id="8">1.9200702,0,0</node>
			<node id="9">1.82609528,0.593334322,0</node>
			<node id="10">1.55336942,1.12858895,0</node>
			<node id="11">1.12858895,1.55336942,0</node>
			<node id="12">0.593334322,1.82609528,0</node>
			<node id="13">1.17570391e-16,1.9200702,0</node>
			<node id="14">2.352086,0,0</node>
			<node id="15">2.23696671,0.726834545,0</node>
			<node id="16">1.90287754,1.38252146,0</node>
			<node id="17">1.38252146,1.90287754,0</node>
			<node id="18">0.726834545,2.23696671,0</node>
			<node id="19">1.44023729e-16,2.352086,0</node>
			<node id="20">2.61129547,0,0</node>
<!-- ... 222 like lines cut -->
		</Nodes>
		<Nodes name="Object4">
			<node id="243">0,0,1.49999</node>
			<node id="244">1,0,1.49999</node>
			<node id="245">0.951056516,0.309016994,1.49999</node>
			<node id="246">0.809016994,0.587785252,1.49999</node>
			<node id="247">0.587785252,0.809016994,1.49999</node>
			<node id="248">0.309016994,0.951056516,1.49999</node>
			<node id="249">6.123234e-17,1,1.49999</node>
			<node id="250">2,0,1.49999</node>
			<node id="251">1.90211303,0.618033989,1.49999</node>
			<node id="252">1.61803399,1.1755705,1.49999</node>
			<node id="253">1.1755705,1.61803399,1.49999</node>
			<node id="254">0.618033989,1.90211303,1.49999</node>
			<node id="255">1.2246468e-16,2,1.49999</node>
			<node id="256">3,0,1.49999</node>
			<node id="257">2.85316955,0.927050983,1.49999</node>
			<node id="258">2.42705098,1.76335576,1.49999</node>
			<node id="259">1.76335576,2.42705098,1.49999</node>
			<node id="260">0.927050983,2.85316955,1.49999</node>
			<node id="261">1.8369702e-16,3,1.49999</node>
			<node id="262">4,0,1.49999</node>
<!-- ... 42 like lines cut -->
		</Nodes>
		<Elements type="penta6" name="Part1">
			<elem id="1">1,2,3,122,123,124</elem>
			<elem id="2">1,3,4,122,124,125</elem>
			<elem id="3">1,4,5,122,125,126</elem>
			<elem id="4">1,5,6,122,126,127</elem>
			<elem id="5">1,6,7,122,127,128</elem>
		</Elements>
		<Elements type="hex8" name="Part1__2">
			<elem id="6">2,8,9,3,123,129,130,124</elem>
			<elem id="7">3,9,10,4,124,130,131,125</elem>
			<elem id="8">4,10,11,5,125,131,132,126</elem>
			<elem id="9">5,11,12,6,126,132,133,127</elem>
			<elem id="10">6,12,13,7,127,133,134,128</elem>
			<elem id="11">8,14,15,9,129,135,136,130</elem>
			<elem id="12">9,15,16,10,130,136,137,131</elem>
			<elem id="13">10,16,17,11,131,137,138,132</elem>
			<elem id="14">11,17,18,12,132,138,139,133</elem>
			<elem id="15">12,18,19,13,133,139,140,134</elem>
			<elem id="16">14,20,21,15,135,141,142,136</elem>
			<elem id="17">15,21,22,16,136,142,143,137</elem>
			<elem id="18">16,22,23,17,137,143,144,138</elem>
			<elem id="19">17,23,24,18,138,144,145,139</elem>
			<elem id="20">18,24,25,19,139,145,146,140</elem>
			<elem id="21">20,26,27,21,141,147,148,142</elem>
			<elem id="22">21,27,28,22,142,148,149,143</elem>
			<elem id="23">22,28,29,23,143,149,150,144</elem>
			<elem id="24">23,29,30,24,144,150,151,145</elem>
			<elem id="25">24,30,31,25,145,151,152,146</elem>
<!-- ... 75 like lines cut -->
		</Elements>
		<Elements type="penta6" name="Part6">
			<elem id="101">243,244,245,274,275,276</elem>
			<elem id="102">243,245,246,274,276,277</elem>
			<elem id="103">243,246,247,274,277,278</elem>
			<elem id="104">243,247,248,274,278,279</elem>
			<elem id="105">243,248,249,274,279,280</elem>
		</Elements>
		<Elements type="hex8" name="Part6__2">
			<elem id="106">244,250,251,245,275,281,282,276</elem>
			<elem id="107">245,251,252,246,276,282,283,277</elem>
			<elem id="108">246,252,253,247,277,283,284,278</elem>
			<elem id="109">247,253,254,248,278,284,285,279</elem>
			<elem id="110">248,254,255,249,279,285,286,280</elem>
			<elem id="111">250,256,257,251,281,287,288,282</elem>
			<elem id="112">251,257,258,252,282,288,289,283</elem>
			<elem id="113">252,258,259,253,283,289,290,284</elem>
			<elem id="114">253,259,260,254,284,290,291,285</elem>
			<elem id="115">254,260,261,255,285,291,292,286</elem>
			<elem id="116">256,262,263,257,287,293,294,288</elem>
			<elem id="117">257,263,264,258,288,294,295,289</elem>
			<elem id="118">258,264,265,259,289,295,296,290</elem>
			<elem id="119">259,265,266,260,290,296,297,291</elem>
			<elem id="120">260,266,267,261,291,297,298,292</elem>
			<elem id="121">262,268,269,263,293,299,300,294</elem>
			<elem id="122">263,269,270,264,294,300,301,295</elem>
			<elem id="123">264,270,271,265,295,301,302,296</elem>
			<elem id="124">265,271,272,266,296,302,303,297</elem>
			<elem id="125">266,272,273,267,297,303,304,298</elem>
		</Elements>
		<Surface name="ZeroDisplacement1">
			<tri3 id="1">1,3,2</tri3>
			<quad4 id="2">3,9,8,2</quad4>
			<quad4 id="3">9,15,14,8</quad4>
			<quad4 id="4">15,21,20,14</quad4>
			<quad4 id="5">21,27,26,20</quad4>
			<quad4 id="6">27,33,32,26</quad4>
			<quad4 id="7">33,39,38,32</quad4>
			<quad4 id="8">39,45,44,38</quad4>
			<quad4 id="9">45,51,50,44</quad4>
			<quad4 id="10">51,57,56,50</quad4>
			<quad4 id="11">57,63,62,56</quad4>
			<quad4 id="12">63,69,68,62</quad4>
			<quad4 id="13">69,75,74,68</quad4>
			<quad4 id="14">75,81,80,74</quad4>
			<quad4 id="15">81,87,86,80</quad4>
			<quad4 id="16">87,93,92,86</quad4>
			<quad4 id="17">93,99,98,92</quad4>
			<quad4 id="18">99,105,104,98</quad4>
			<quad4 id="19">105,111,110,104</quad4>
			<quad4 id="20">111,117,116,110</quad4>
			<tri3 id="21">1,4,3</tri3>
			<quad4 id="22">4,10,9,3</quad4>
			<quad4 id="23">10,16,15,9</quad4>
			<quad4 id="24">16,22,21,15</quad4>
			<quad4 id="25">22,28,27,21</quad4>
			<quad4 id="26">28,34,33,27</quad4>
			<quad4 id="27">34,40,39,33</quad4>
			<quad4 id="28">40,46,45,39</quad4>
			<quad4 id="29">46,52,51,45</quad4>
			<quad4 id="30">52,58,57,51</quad4>
			<quad4 id="31">58,64,63,57</quad4>
			<quad4 id="32">64,70,69,63</quad4>
			<quad4 id="33">70,76,75,69</quad4>
			<quad4 id="34">76,82,81,75</quad4>
			<quad4 id="35">82,88,87,81</quad4>
			<quad4 id="36">88,94,93,87</quad4>
			<quad4 id="37">94,100,99,93</quad4>
			<quad4 id="38">100,106,105,99</quad4>
			<quad4 id="39">106,112,111,105</quad4>
			<quad4 id="40">112,118,117,111</quad4>
			<tri3 id="41">1,5,4</tri3>
			<quad4 id="42">5,11,10,4</quad4>
			<quad4 id="43">11,17,16,10</quad4>
			<quad4 id="44">17,23,22,16</quad4>
			<quad4 id="45">23,29,28,22</quad4>
			<quad4 id="46">29,35,34,28</quad4>
			<quad4 id="47">35,41,40,34</quad4>
			<quad4 id="48">41,47,46,40</quad4>
			<quad4 id="49">47,53,52,46</quad4>
			<quad4 id="50">53,59,58,52</quad4>
			<quad4 id="51">59,65,64,58</quad4>
			<quad4 id="52">65,71,70,64</quad4>
			<quad4 id="53">71,77,76,70</quad4>
			<quad4 id="54">77,83,82,76</quad4>
			<quad4 id="55">83,89,88,82</quad4>
			<quad4 id="56">89,95,94,88</quad4>
			<quad4 id="57">95,101,100,94</quad4>
			<quad4 id="58">101,107,106,100</quad4>
			<quad4 id="59">107,113,112,106</quad4>
			<quad4 id="60">113,119,118,112</quad4>
			<tri3 id="61">1,6,5</tri3>
			<quad4 id="62">6,12,11,5</quad4>
			<quad4 id="63">12,18,17,11</quad4>
			<quad4 id="64">18,24,23,17</quad4>
			<quad4 id="65">24,30,29,23</quad4>
			<quad4 id="66">30,36,35,29</quad4>
			<quad4 id="67">36,42,41,35</quad4>
			<quad4 id="68">42,48,47,41</quad4>
			<quad4 id="69">48,54,53,47</quad4>
			<quad4 id="70">54,60,59,53</quad4>
			<quad4 id="71">60,66,65,59</quad4>
			<quad4 id="72">66,72,71,65</quad4>
			<quad4 id="73">72,78,77,71</quad4>
			<quad4 id="74">78,84,83,77</quad4>
			<quad4 id="75">84,90,89,83</quad4>
			<quad4 id="76">90,96,95,89</quad4>
			<quad4 id="77">96,102,101,95</quad4>
			<quad4 id="78">102,108,107,101</quad4>
			<quad4 id="79">108,114,113,107</quad4>
			<quad4 id="80">114,120,119,113</quad4>
			<tri3 id="81">1,7,6</tri3>
			<quad4 id="82">7,13,12,6</quad4>
			<quad4 id="83">13,19,18,12</quad4>
			<quad4 id="84">19,25,24,18</quad4>
			<quad4 id="85">25,31,30,24</quad4>
			<quad4 id="86">31,37,36,30</quad4>
			<quad4 id="87">37,43,42,36</quad4>
			<quad4 id="88">43,49,48,42</quad4>
			<quad4 id="89">49,55,54,48</quad4>
			<quad4 id="90">55,61,60,54</quad4>
			<quad4 id="91">61,67,66,60</quad4>
			<quad4 id="92">67,73,72,66</quad4>
			<quad4 id="93">73,79,78,72</quad4>
			<quad4 id="94">79,85,84,78</quad4>
			<quad4 id="95">85,91,90,84</quad4>
			<quad4 id="96">91,97,96,90</quad4>
			<quad4 id="97">97,103,102,96</quad4>
			<quad4 id="98">103,109,108,102</quad4>
			<quad4 id="99">109,115,114,108</quad4>
			<quad4 id="100">115,121,120,114</quad4>
		</Surface>
		<Surface name="ZeroFluidPressure4">
			<quad4 id="1">116,117,238,237</quad4>
			<quad4 id="2">117,118,239,238</quad4>
			<quad4 id="3">118,119,240,239</quad4>
			<quad4 id="4">119,120,241,240</quad4>
			<quad4 id="5">120,121,242,241</quad4>
		</Surface>
		<Surface name="SlidingElastic1Secondary">
			<tri3 id="1">243,245,244</tri3>
			<quad4 id="2">245,251,250,244</quad4>
			<quad4 id="3">251,257,256,250</quad4>
			<quad4 id="4">257,263,262,256</quad4>
			<quad4 id="5">263,269,268,262</quad4>
			<tri3 id="6">243,246,245</tri3>
			<quad4 id="7">246,252,251,245</quad4>
			<quad4 id="8">252,258,257,251</quad4>
			<quad4 id="9">258,264,263,257</quad4>
			<quad4 id="10">264,270,269,263</quad4>
			<tri3 id="11">243,247,246</tri3>
			<quad4 id="12">247,253,252,246</quad4>
			<quad4 id="13">253,259,258,252</quad4>
			<quad4 id="14">259,265,264,258</quad4>
			<quad4 id="15">265,271,270,264</quad4>
			<tri3 id="16">243,248,247</tri3>
			<quad4 id="17">248,254,253,247</quad4>
			<quad4 id="18">254,260,259,253</quad4>
			<quad4 id="19">260,266,265,259</quad4>
			<quad4 id="20">266,272,271,265</quad4>
			<tri3 id="21">243,249,248</tri3>
			<quad4 id="22">249,255,254,248</quad4>
			<quad4 id="23">255,261,260,254</quad4>
			<quad4 id="24">261,267,266,260</quad4>
			<quad4 id="25">267,273,272,266</quad4>
		</Surface>
		<Surface name="SlidingElastic1Primary">
			<tri3 id="1">122,123,124</tri3>
			<quad4 id="2">123,129,130,124</quad4>
			<quad4 id="3">129,135,136,130</quad4>
			<quad4 id="4">135,141,142,136</quad4>
			<quad4 id="5">141,147,148,142</quad4>
			<quad4 id="6">147,153,154,148</quad4>
			<quad4 id="7">153,159,160,154</quad4>
			<quad4 id="8">159,165,166,160</quad4>
			<quad4 id="9">165,171,172,166</quad4>
			<quad4 id="10">171,177,178,172</quad4>
			<quad4 id="11">177,183,184,178</quad4>
			<quad4 id="12">183,189,190,184</quad4>
			<quad4 id="13">189,195,196,190</quad4>
			<quad4 id="14">195,201,202,196</quad4>
			<quad4 id="15">201,207,208,202</quad4>
			<quad4 id="16">207,213,214,208</quad4>
			<quad4 id="17">213,219,220,214</quad4>
			<quad4 id="18">219,225,226,220</quad4>
			<quad4 id="19">225,231,232,226</quad4>
			<quad4 id="20">231,237,238,232</quad4>
			<tri3 id="21">122,124,125</tri3>
			<quad4 id="22">124,130,131,125</quad4>
			<quad4 id="23">130,136,137,131</quad4>
			<quad4 id="24">136,142,143,137</quad4>
			<quad4 id="25">142,148,149,143</quad4>
			<quad4 id="26">148,154,155,149</quad4>
			<quad4 id="27">154,160,161,155</quad4>
			<quad4 id="28">160,166,167,161</quad4>
			<quad4 id="29">166,172,173,167</quad4>
			<quad4 id="30">172,178,179,173</quad4>
			<quad4 id="31">178,184,185,179</quad4>
			<quad4 id="32">184,190,191,185</quad4>
			<quad4 id="33">190,196,197,191</quad4>
			<quad4 id="34">196,202,203,197</quad4>
			<quad4 id="35">202,208,209,203</quad4>
			<quad4 id="36">208,214,215,209</quad4>
			<quad4 id="37">214,220,221,215</quad4>
			<quad4 id="38">220,226,227,221</quad4>
			<quad4 id="39">226,232,233,227</quad4>
			<quad4 id="40">232,238,239,233</quad4>
			<tri3 id="41">122,125,126</tri3>
			<quad4 id="42">125,131,132,126</quad4>
			<quad4 id="43">131,137,138,132</quad4>
			<quad4 id="44">137,143,144,138</quad4>
			<quad4 id="45">143,149,150,144</quad4>
			<quad4 id="46">149,155,156,150</quad4>
			<quad4 id="47">155,161,162,156</quad4>
			<quad4 id="48">161,167,168,162</quad4>
			<quad4 id="49">167,173,174,168</quad4>
			<quad4 id="50">173,179,180,174</quad4>
			<quad4 id="51">179,185,186,180</quad4>
			<quad4 id="52">185,191,192,186</quad4>
			<quad4 id="53">191,197,198,192</quad4>
			<quad4 id="54">197,203,204,198</quad4>
			<quad4 id="55">203,209,210,204</quad4>
			<quad4 id="56">209,215,216,210</quad4>
			<quad4 id="57">215,221,222,216</quad4>
			<quad4 id="58">221,227,228,222</quad4>
			<quad4 id="59">227,233,234,228</quad4>
			<quad4 id="60">233,239,240,234</quad4>
			<tri3 id="61">122,126,127</tri3>
			<quad4 id="62">126,132,133,127</quad4>
			<quad4 id="63">132,138,139,133</quad4>
			<quad4 id="64">138,144,145,139</quad4>
			<quad4 id="65">144,150,151,145</quad4>
			<quad4 id="66">150,156,157,151</quad4>
			<quad4 id="67">156,162,163,157</quad4>
			<quad4 id="68">162,168,169,163</quad4>
			<quad4 id="69">168,174,175,169</quad4>
			<quad4 id="70">174,180,181,175</quad4>
			<quad4 id="71">180,186,187,181</quad4>
			<quad4 id="72">186,192,193,187</quad4>
			<quad4 id="73">192,198,199,193</quad4>
			<quad4 id="74">198,204,205,199</quad4>
			<quad4 id="75">204,210,211,205</quad4>
			<quad4 id="76">210,216,217,211</quad4>
			<quad4 id="77">216,222,223,217</quad4>
			<quad4 id="78">222,228,229,223</quad4>
			<quad4 id="79">228,234,235,229</quad4>
			<quad4 id="80">234,240,241,235</quad4>
			<tri3 id="81">122,127,128</tri3>
			<quad4 id="82">127,133,134,128</quad4>
			<quad4 id="83">133,139,140,134</quad4>
			<quad4 id="84">139,145,146,140</quad4>
			<quad4 id="85">145,151,152,146</quad4>
			<quad4 id="86">151,157,158,152</quad4>
			<quad4 id="87">157,163,164,158</quad4>
			<quad4 id="88">163,169,170,164</quad4>
			<quad4 id="89">169,175,176,170</quad4>
			<quad4 id="90">175,181,182,176</quad4>
			<quad4 id="91">181,187,188,182</quad4>
			<quad4 id="92">187,193,194,188</quad4>
			<quad4 id="93">193,199,200,194</quad4>
			<quad4 id="94">199,205,206,200</quad4>
			<quad4 id="95">205,211,212,206</quad4>
			<quad4 id="96">211,217,218,212</quad4>
			<quad4 id="97">217,223,224,218</quad4>
			<quad4 id="98">223,229,230,224</quad4>
			<quad4 id="99">229,235,236,230</quad4>
			<quad4 id="100">235,241,242,236</quad4>
		</Surface>
		<Surface name="ZeroDisplacement3">
			<quad4 id="1">1,2,123,122</quad4>
			<quad4 id="2">2,8,129,123</quad4>
			<quad4 id="3">8,14,135,129</quad4>
			<quad4 id="4">14,20,141,135</quad4>
			<quad4 id="5">20,26,147,141</quad4>
			<quad4 id="6">26,32,153,147</quad4>
			<quad4 id="7">32,38,159,153</quad4>
			<quad4 id="8">38,44,165,159</quad4>
			<quad4 id="9">44,50,171,165</quad4>
			<quad4 id="10">50,56,177,171</quad4>
			<quad4 id="11">56,62,183,177</quad4>
			<quad4 id="12">62,68,189,183</quad4>
			<quad4 id="13">68,74,195,189</quad4>
			<quad4 id="14">74,80,201,195</quad4>
			<quad4 id="15">80,86,207,201</quad4>
			<quad4 id="16">86,92,213,207</quad4>
			<quad4 id="17">92,98,219,213</quad4>
			<quad4 id="18">98,104,225,219</quad4>
			<quad4 id="19">104,110,231,225</quad4>
			<quad4 id="20">110,116,237,231</quad4>
		</Surface>
		<Surface name="ZeroDisplacement4">
			<quad4 id="1">122,128,7,1</quad4>
			<quad4 id="2">128,134,13,7</quad4>
			<quad4 id="3">134,140,19,13</quad4>
			<quad4 id="4">140,146,25,19</quad4>
			<quad4 id="5">146,152,31,25</quad4>
			<quad4 id="6">152,158,37,31</quad4>
			<quad4 id="7">158,164,43,37</quad4>
			<quad4 id="8">164,170,49,43</quad4>
			<quad4 id="9">170,176,55,49</quad4>
			<quad4 id="10">176,182,61,55</quad4>
			<quad4 id="11">182,188,67,61</quad4>
			<quad4 id="12">188,194,73,67</quad4>
			<quad4 id="13">194,200,79,73</quad4>
			<quad4 id="14">200,206,85,79</quad4>
			<quad4 id="15">206,212,91,85</quad4>
			<quad4 id="16">212,218,97,91</quad4>
			<quad4 id="17">218,224,103,97</quad4>
			<quad4 id="18">224,230,109,103</quad4>
			<quad4 id="19">230,236,115,109</quad4>
			<quad4 id="20">236,242,121,115</quad4>
		</Surface>
		<SurfacePair name="SlidingElastic1">
			<primary>SlidingElastic1Primary</primary>
			<secondary>SlidingElastic1Secondary</secondary>
		</SurfacePair>
	</Mesh>
	<MeshDomains>
		<SolidDomain name="Part1" mat="Material1"/>
		<SolidDomain name="Part1__2" mat="Material1"/>
		<SolidDomain name="Part6" mat="Material2"/>
		<SolidDomain name="Part6__2" mat="Material2"/>
	</MeshDomains>
	<Boundary>
		<bc name="ZeroDisplacement1" node_set="@surface:ZeroDisplacement1" type="zero displacement">
			<x_dof>0</x_dof>
			<y_dof>0</y_dof>
			<z_dof>1</z_dof>
		</bc>
		<bc name="ZeroFluidPressure4" node_set="@surface:ZeroFluidPressure4" type="zero fluid pressure"/>
		<bc name="ZeroDisplacement3" node_set="@surface:ZeroDisplacement3" type="zero displacement">
			<x_dof>0</x_dof>
			<y_dof>1</y_dof>
			<z_dof>0</z_dof>
		</bc>
		<bc name="ZeroDisplacement4" node_set="@surface:ZeroDisplacement4" type="zero displacement">
			<x_dof>1</x_dof>
			<y_dof>0</y_dof>
			<z_dof>0</z_dof>
		</bc>
	</Boundary>
	<Rigid>
		<rigid_bc name="RigidConstraint1" type="rigid_fixed">
			<rb>Material2</rb>
			<Rx_dof>1</Rx_dof>
			<Ry_dof>1</Ry_dof>
			<Rz_dof>0</Rz_dof>
			<Ru_dof>1</Ru_dof>
			<Rv_dof>1</Rv_dof>
			<Rw_dof>1</Rw_dof>
		</rigid_bc>
		<rigid_load name="RigidLoad1" type="rigid_force">
			<rb>Material2</rb>
			<dof>Rz</dof>
			<value lc="2">-0.025</value>
			<load_type>LOAD</load_type>
			<relative>0</relative>
		</rigid_load>
	</Rigid>
	<Contact>
		<contact name="SlidingElastic1" surface_pair="SlidingElastic1" type="sliding-elastic">
			<laugon>PENALTY</laugon>
			<tolerance>0.1</tolerance>
			<gaptol>0</gaptol>
			<penalty>100</penalty>
			<auto_penalty>1</auto_penalty>
			<update_penalty>0</update_penalty>
			<two_pass>0</two_pass>
			<knmult>0</knmult>
			<search_tol>0.01</search_tol>
			<symmetric_stiffness>0</symmetric_stiffness>
			<search_radius>1</search_radius>
			<seg_up>0</seg_up>
			<tension>0</tension>
			<minaug>0</minaug>
			<maxaug>10</maxaug>
			<node_reloc>0</node_reloc>
			<fric_coeff>0</fric_coeff>
			<smooth_aug>0</smooth_aug>
			<flip_primary>0</flip_primary>
			<flip_secondary>0</flip_secondary>
			<shell_bottom_primary>0</shell_bottom_primary>
			<shell_bottom_secondary>0</shell_bottom_secondary>
			<offset>0</offset>
		</contact>
	</Contact>
	<LoadData>
		<load_controller id="1" name="LC2" type="loadcurve">
			<interpolate>LINEAR</interpolate>
			<extend>CONSTANT</extend>
			<points>
				<pt>0,0.01</pt>
				<pt>0.5,0.1</pt>
				<pt>1,0.1</pt>
				<pt>1000000,100000</pt>
			</points>
		</load_controller>
		<load_controller id="2" name="LC2" type="loadcurve">
			<interpolate>LINEAR</interpolate>
			<extend>CONSTANT</extend>
			<points>
				<pt>0,1</pt>
				<pt>0.1,1</pt>
			</points>
		</load_controller>
	</LoadData>
	<Output>
		<plotfile type="febio">
			<var type="displacement"/>
			<var type="stress"/>
			<var type="relative volume"/>
			<var type="solid stress"/>
			<var type="effective fluid pressure"/>
			<var type="fluid pressure"/>
			<var type="fluid flux"/>
			<var type="contact pressure"/>
			<var type="contact gap"/>
			<var type="fluid force"/>
		</plotfile>
	</Output>
</febio_spec>
