<?xml version="1.0" encoding="ISO-8859-1"?>
<febio_spec version="4.0">
	<Module type="biphasic">
		<units>mm-N-s</units>
	</Module>
	<Control>
		<analysis>TRANSIENT</analysis>
		<time_steps>2400</time_steps>
		<step_size>1</step_size>
		<plot_zero_state>0</plot_zero_state>
		<plot_range>0,-1</plot_range>
		<plot_level>PLOT_MAJOR_ITRS</plot_level>
		<output_level>OUTPUT_MAJOR_ITRS</output_level>
		<plot_stride>1</plot_stride>
		<adaptor_re_solve>1</adaptor_re_solve>
		<time_stepper type="default">
			<max_retries>5</max_retries>
			<opt_iter>11</opt_iter>
			<dtmin>0</dtmin>
			<dtmax lc="1">0.1</dtmax>
			<aggressiveness>0</aggressiveness>
			<cutback>0.5</cutback>
			<dtforce>0</dtforce>
		</time_stepper>
		<solver type="biphasic">
			<symmetric_stiffness>non-symmetric</symmetric_stiffness>
			<equation_scheme>staggered</equation_scheme>
			<equation_order>default</equation_order>
			<optimize_bw>0</optimize_bw>
			<lstol>0.9</lstol>
			<lsmin>0.01</lsmin>
			<lsiter>5</lsiter>
			<max_refs>50</max_refs>
			<check_zero_diagonal>0</check_zero_diagonal>
			<zero_diagonal_tol>0</zero_diagonal_tol>
			<force_partition>0</force_partition>
			<reform_each_time_step>1</reform_each_time_step>
			<reform_augment>0</reform_augment>
			<diverge_reform>1</diverge_reform>
			<min_residual>1e-20</min_residual>
			<max_residual>0</max_residual>
			<dtol>0.001</dtol>
			<etol>0.01</etol>
			<rtol>0</rtol>
			<rhoi>-2</rhoi>
			<alpha>1</alpha>
			<beta>0.25</beta>
			<gamma>0.5</gamma>
			<logSolve>0</logSolve>
			<arc_length>0</arc_length>
			<arc_length_scale>0</arc_length_scale>
			<ptol>0.01</ptol>
			<mixed_formulation>0</mixed_formulation>
			<qn_method type="full Newton"/>
		</solver>
	</Control>
	<Globals>
		<Constants>
			<T>0</T>
			<P>0</P>
			<R>8.31446e-06</R>
			<Fc>9.64853e-05</Fc>
		</Constants>
	</Globals>
	<Material>
		<material id="1" name="Material1" type="biphasic">
			<phi0>0.044</phi0>
			<fluid_density>1</fluid_density>
			<tau>0</tau>
			<solid type="neo-Hookean">
				<density>1</density>
				<E>0.0059</E>
				<v>0.31</v>
			</solid>
			<permeability type="perm-const-iso">
				<perm>0.67</perm>
			</permeability>
		</material>
		<material id="2" name="top" type="rigid body">
			<density>1</density>
			<E>1</E>
			<v>0</v>
		</material>
	</Material>
	<Mesh>
		<Nodes name="Object1">
			<node id="1">0,0,0</node>
			<node id="2">0.900120712,0,0</node>
			<node id="3">0.889038733,0.140809902,0</node>
			<node id="4">0.856065669,0.278152597,0</node>
			<node id="5">0.802013427,0.408646252,0</node>
			<node id="6">0.728212953,0.52907768,0</node>
			<node id="7">0.63648146,0.63648146,0</node>
			<node id="8">1.53020521,0,0</node>
			<node id="9">1.51136585,0.239376834,0</node>
			<node id="10">1.45531164,0.472859415,0</node>
			<node id="11">1.36342283,0.694698628,0</node>
			<node id="12">1.23796202,0.899432056,0</node>
			<node id="13">1.08201848,1.08201848,0</node>
			<node id="14">1.97126436,0,0</node>
			<node id="15">1.94699482,0.308373686,0</node>
			<node id="16">1.87478381,0.609154188,0</node>
			<node id="17">1.75640941,0.894935292,0</node>
			<node id="18">1.59478637,1.15868012,0</node>
			<node id="19">1.3938944,1.3938944,0</node>
			<node id="20">2.28000576,0,0</node>
<!-- ... 282 like lines cut -->
		</Nodes>
		<Nodes name="Object2">
			<node id="303">0,0,1.5999</node>
			<node id="304">0.7,0,1.5999</node>
			<node id="305">0.494974747,0.494974747,1.5999</node>
			<node id="306">1.4,0,1.5999</node>
			<node id="307">0.989949494,0.989949494,1.5999</node>
			<node id="308">2.1,0,1.5999</node>
			<node id="309">1.48492424,1.48492424,1.5999</node>
			<node id="310">2.8,0,1.5999</node>
			<node id="311">1.97989899,1.97989899,1.5999</node>
			<node id="312">3.5,0,1.5999</node>
			<node id="313">2.47487373,2.47487373,1.5999</node>
			<node id="314">0,0,1.6999</node>
			<node id="315">0.7,0,1.6999</node>
			<node id="316">0.494974747,0.494974747,1.6999</node>
			<node id="317">1.4,0,1.6999</node>
			<node id="318">0.989949494,0.989949494,1.6999</node>
			<node id="319">2.1,0,1.6999</node>
			<node id="320">1.48492424,1.48492424,1.6999</node>
			<node id="321">2.8,0,1.6999</node>
			<node id="322">1.97989899,1.97989899,1.6999</node>
			<node id="323">3.5,0,1.6999</node>
			<node id="324">2.47487373,2.47487373,1.6999</node>
		</Nodes>
		<Elements type="penta6" name="Part1">
			<elem id="1">1,2,3,152,153,154</elem>
			<elem id="2">1,3,4,152,154,155</elem>
			<elem id="3">1,4,5,152,155,156</elem>
			<elem id="4">1,5,6,152,156,157</elem>
			<elem id="5">1,6,7,152,157,158</elem>
		</Elements>
		<Elements type="hex8" name="Part1__2">
			<elem id="6">2,8,9,3,153,159,160,154</elem>
			<elem id="7">3,9,10,4,154,160,161,155</elem>
			<elem id="8">4,10,11,5,155,161,162,156</elem>
			<elem id="9">5,11,12,6,156,162,163,157</elem>
			<elem id="10">6,12,13,7,157,163,164,158</elem>
			<elem id="11">8,14,15,9,159,165,166,160</elem>
			<elem id="12">9,15,16,10,160,166,167,161</elem>
			<elem id="13">10,16,17,11,161,167,168,162</elem>
			<elem id="14">11,17,18,12,162,168,169,163</elem>
			<elem id="15">12,18,19,13,163,169,170,164</elem>
			<elem id="16">14,20,21,15,165,171,172,166</elem>
			<elem id="17">15,21,22,16,166,172,173,167</elem>
			<elem id="18">16,22,23,17,167,173,174,168</elem>
			<elem id="19">17,23,24,18,168,174,175,169</elem>
			<elem id="20">18,24,25,19,169,175,176,170</elem>
			<elem id="21">20,26,27,21,171,177,178,172</elem>
			<elem id="22">21,27,28,22,172,178,179,173</elem>
			<elem id="23">22,28,29,23,173,179,180,174</elem>
			<elem id="24">23,29,30,24,174,180,181,175</elem>
			<elem id="25">24,30,31,25,175,181,182,176</elem>
<!-- ... 100 like lines cut -->
		</Elements>
		<Elements type="penta6" name="Part2">
			<elem id="126">303,304,305,314,315,316</elem>
		</Elements>
		<Elements type="hex8" name="Part2__2">
			<elem id="127">304,306,307,305,315,317,318,316</elem>
			<elem id="128">306,308,309,307,317,319,320,318</elem>
			<elem id="129">308,310,311,309,319,321,322,320</elem>
			<elem id="130">310,312,313,311,321,323,324,322</elem>
		</Elements>
		<Surface name="SymmetryPlane1">
			<quad4 id="1">1,2,153,152</quad4>
			<quad4 id="2">2,8,159,153</quad4>
			<quad4 id="3">8,14,165,159</quad4>
			<quad4 id="4">14,20,171,165</quad4>
			<quad4 id="5">20,26,177,171</quad4>
			<quad4 id="6">26,32,183,177</quad4>
			<quad4 id="7">32,38,189,183</quad4>
			<quad4 id="8">38,44,195,189</quad4>
			<quad4 id="9">44,50,201,195</quad4>
			<quad4 id="10">50,56,207,201</quad4>
			<quad4 id="11">56,62,213,207</quad4>
			<quad4 id="12">62,68,219,213</quad4>
			<quad4 id="13">68,74,225,219</quad4>
			<quad4 id="14">74,80,231,225</quad4>
			<quad4 id="15">80,86,237,231</quad4>
			<quad4 id="16">86,92,243,237</quad4>
			<quad4 id="17">92,98,249,243</quad4>
			<quad4 id="18">98,104,255,249</quad4>
			<quad4 id="19">104,110,261,255</quad4>
			<quad4 id="20">110,116,267,261</quad4>
<!-- ... 5 like lines cut -->
		</Surface>
		<Surface name="SymmetryPlane2">
			<quad4 id="1">152,158,7,1</quad4>
			<quad4 id="2">158,164,13,7</quad4>
			<quad4 id="3">164,170,19,13</quad4>
			<quad4 id="4">170,176,25,19</quad4>
			<quad4 id="5">176,182,31,25</quad4>
			<quad4 id="6">182,188,37,31</quad4>
			<quad4 id="7">188,194,43,37</quad4>
			<quad4 id="8">194,200,49,43</quad4>
			<quad4 id="9">200,206,55,49</quad4>
			<quad4 id="10">206,212,61,55</quad4>
			<quad4 id="11">212,218,67,61</quad4>
			<quad4 id="12">218,224,73,67</quad4>
			<quad4 id="13">224,230,79,73</quad4>
			<quad4 id="14">230,236,85,79</quad4>
			<quad4 id="15">236,242,91,85</quad4>
			<quad4 id="16">242,248,97,91</quad4>
			<quad4 id="17">248,254,103,97</quad4>
			<quad4 id="18">254,260,109,103</quad4>
			<quad4 id="19">260,266,115,109</quad4>
			<quad4 id="20">266,272,121,115</quad4>
<!-- ... 5 like lines cut -->
		</Surface>
		<Surface name="ZeroFluidPressure1">
			<quad4 id="1">146,147,298,297</quad4>
			<quad4 id="2">147,148,299,298</quad4>
			<quad4 id="3">148,149,300,299</quad4>
			<quad4 id="4">149,150,301,300</quad4>
			<quad4 id="5">150,151,302,301</quad4>
		</Surface>
		<Surface name="SlidingElastic1Secondary">
			<tri3 id="1">303,305,304</tri3>
			<quad4 id="2">305,307,306,304</quad4>
			<quad4 id="3">307,309,308,306</quad4>
			<quad4 id="4">309,311,310,308</quad4>
			<quad4 id="5">311,313,312,310</quad4>
		</Surface>
		<Surface name="SlidingElastic1Primary">
			<tri3 id="1">152,153,154</tri3>
			<quad4 id="2">153,159,160,154</quad4>
			<quad4 id="3">159,165,166,160</quad4>
			<quad4 id="4">165,171,172,166</quad4>
			<quad4 id="5">171,177,178,172</quad4>
			<quad4 id="6">177,183,184,178</quad4>
			<quad4 id="7">183,189,190,184</quad4>
			<quad4 id="8">189,195,196,190</quad4>
			<quad4 id="9">195,201,202,196</quad4>
			<quad4 id="10">201,207,208,202</quad4>
			<quad4 id="11">207,213,214,208</quad4>
			<quad4 id="12">213,219,220,214</quad4>
			<quad4 id="13">219,225,226,220</quad4>
			<quad4 id="14">225,231,232,226</quad4>
			<quad4 id="15">231,237,238,232</quad4>
			<quad4 id="16">237,243,244,238</quad4>
			<quad4 id="17">243,249,250,244</quad4>
			<quad4 id="18">249,255,256,250</quad4>
			<quad4 id="19">255,261,262,256</quad4>
			<quad4 id="20">261,267,268,262</quad4>
			<quad4 id="21">267,273,274,268</quad4>
<!-- ... 4 like lines cut -->
			<tri3 id="26">152,154,155</tri3>
			<quad4 id="27">154,160,161,155</quad4>
			<quad4 id="28">160,166,167,161</quad4>
			<quad4 id="29">166,172,173,167</quad4>
			<quad4 id="30">172,178,179,173</quad4>
			<quad4 id="31">178,184,185,179</quad4>
			<quad4 id="32">184,190,191,185</quad4>
			<quad4 id="33">190,196,197,191</quad4>
			<quad4 id="34">196,202,203,197</quad4>
			<quad4 id="35">202,208,209,203</quad4>
			<quad4 id="36">208,214,215,209</quad4>
			<quad4 id="37">214,220,221,215</quad4>
			<quad4 id="38">220,226,227,221</quad4>
			<quad4 id="39">226,232,233,227</quad4>
			<quad4 id="40">232,238,239,233</quad4>
			<quad4 id="41">238,244,245,239</quad4>
			<quad4 id="42">244,250,251,245</quad4>
			<quad4 id="43">250,256,257,251</quad4>
			<quad4 id="44">256,262,263,257</quad4>
			<quad4 id="45">262,268,269,263</quad4>
			<quad4 id="46">268,274,275,269</quad4>
<!-- ... 4 like lines cut -->
			<tri3 id="51">152,155,156</tri3>
			<quad4 id="52">155,161,162,156</quad4>
			<quad4 id="53">161,167,168,162</quad4>
			<quad4 id="54">167,173,174,168</quad4>
			<quad4 id="55">173,179,180,174</quad4>
			<quad4 id="56">179,185,186,180</quad4>
			<quad4 id="57">185,191,192,186</quad4>
			<quad4 id="58">191,197,198,192</quad4>
			<quad4 id="59">197,203,204,198</quad4>
			<quad4 id="60">203,209,210,204</quad4>
			<quad4 id="61">209,215,216,210</quad4>
			<quad4 id="62">215,221,222,216</quad4>
			<quad4 id="63">221,227,228,222</quad4>
			<quad4 id="64">227,233,234,228</quad4>
			<quad4 id="65">233,239,240,234</quad4>
			<quad4 id="66">239,245,246,240</quad4>
			<quad4 id="67">245,251,252,246</quad4>
			<quad4 id="68">251,257,258,252</quad4>
			<quad4 id="69">257,263,264,258</quad4>
			<quad4 id="70">263,269,270,264</quad4>
			<quad4 id="71">269,275,276,270</quad4>
<!-- ... 4 like lines cut -->
			<tri3 id="76">152,156,157</tri3>
			<quad4 id="77">156,162,163,157</quad4>
			<quad4 id="78">162,168,169,163</quad4>
			<quad4 id="79">168,174,175,169</quad4>
			<quad4 id="80">174,180,181,175</quad4>
			<quad4 id="81">180,186,187,181</quad4>
			<quad4 id="82">186,192,193,187</quad4>
			<quad4 id="83">192,198,199,193</quad4>
			<quad4 id="84">198,204,205,199</quad4>
			<quad4 id="85">204,210,211,205</quad4>
			<quad4 id="86">210,216,217,211</quad4>
			<quad4 id="87">216,222,223,217</quad4>
			<quad4 id="88">222,228,229,223</quad4>
			<quad4 id="89">228,234,235,229</quad4>
			<quad4 id="90">234,240,241,235</quad4>
			<quad4 id="91">240,246,247,241</quad4>
			<quad4 id="92">246,252,253,247</quad4>
			<quad4 id="93">252,258,259,253</quad4>
			<quad4 id="94">258,264,265,259</quad4>
			<quad4 id="95">264,270,271,265</quad4>
			<quad4 id="96">270,276,277,271</quad4>
<!-- ... 4 like lines cut -->
			<tri3 id="101">152,157,158</tri3>
			<quad4 id="102">157,163,164,158</quad4>
			<quad4 id="103">163,169,170,164</quad4>
			<quad4 id="104">169,175,176,170</quad4>
			<quad4 id="105">175,181,182,176</quad4>
			<quad4 id="106">181,187,188,182</quad4>
			<quad4 id="107">187,193,194,188</quad4>
			<quad4 id="108">193,199,200,194</quad4>
			<quad4 id="109">199,205,206,200</quad4>
			<quad4 id="110">205,211,212,206</quad4>
			<quad4 id="111">211,217,218,212</quad4>
			<quad4 id="112">217,223,224,218</quad4>
			<quad4 id="113">223,229,230,224</quad4>
			<quad4 id="114">229,235,236,230</quad4>
			<quad4 id="115">235,241,242,236</quad4>
			<quad4 id="116">241,247,248,242</quad4>
			<quad4 id="117">247,253,254,248</quad4>
			<quad4 id="118">253,259,260,254</quad4>
			<quad4 id="119">259,265,266,260</quad4>
			<quad4 id="120">265,271,272,266</quad4>
			<quad4 id="121">271,277,278,272</quad4>
<!-- ... 4 like lines cut -->
		</Surface>
		<Surface name="ZeroDisplacement2">
			<tri3 id="1">1,3,2</tri3>
			<quad4 id="2">3,9,8,2</quad4>
			<quad4 id="3">9,15,14,8</quad4>
			<quad4 id="4">15,21,20,14</quad4>
			<quad4 id="5">21,27,26,20</quad4>
			<quad4 id="6">27,33,32,26</quad4>
			<quad4 id="7">33,39,38,32</quad4>
			<quad4 id="8">39,45,44,38</quad4>
			<quad4 id="9">45,51,50,44</quad4>
			<quad4 id="10">51,57,56,50</quad4>
			<quad4 id="11">57,63,62,56</quad4>
			<quad4 id="12">63,69,68,62</quad4>
			<quad4 id="13">69,75,74,68</quad4>
			<quad4 id="14">75,81,80,74</quad4>
			<quad4 id="15">81,87,86,80</quad4>
			<quad4 id="16">87,93,92,86</quad4>
			<quad4 id="17">93,99,98,92</quad4>
			<quad4 id="18">99,105,104,98</quad4>
			<quad4 id="19">105,111,110,104</quad4>
			<quad4 id="20">111,117,116,110</quad4>
			<quad4 id="21">117,123,122,116</quad4>
<!-- ... 4 like lines cut -->
			<tri3 id="26">1,4,3</tri3>
			<quad4 id="27">4,10,9,3</quad4>
			<quad4 id="28">10,16,15,9</quad4>
			<quad4 id="29">16,22,21,15</quad4>
			<quad4 id="30">22,28,27,21</quad4>
			<quad4 id="31">28,34,33,27</quad4>
			<quad4 id="32">34,40,39,33</quad4>
			<quad4 id="33">40,46,45,39</quad4>
			<quad4 id="34">46,52,51,45</quad4>
			<quad4 id="35">52,58,57,51</quad4>
			<quad4 id="36">58,64,63,57</quad4>
			<quad4 id="37">64,70,69,63</quad4>
			<quad4 id="38">70,76,75,69</quad4>
			<quad4 id="39">76,82,81,75</quad4>
			<quad4 id="40">82,88,87,81</quad4>
			<quad4 id="41">88,94,93,87</quad4>
			<quad4 id="42">94,100,99,93</quad4>
			<quad4 id="43">100,106,105,99</quad4>
			<quad4 id="44">106,112,111,105</quad4>
			<quad4 id="45">112,118,117,111</quad4>
			<quad4 id="46">118,124,123,117</quad4>
<!-- ... 4 like lines cut -->
			<tri3 id="51">1,5,4</tri3>
			<quad4 id="52">5,11,10,4</quad4>
			<quad4 id="53">11,17,16,10</quad4>
			<quad4 id="54">17,23,22,16</quad4>
			<quad4 id="55">23,29,28,22</quad4>
			<quad4 id="56">29,35,34,28</quad4>
			<quad4 id="57">35,41,40,34</quad4>
			<quad4 id="58">41,47,46,40</quad4>
			<quad4 id="59">47,53,52,46</quad4>
			<quad4 id="60">53,59,58,52</quad4>
			<quad4 id="61">59,65,64,58</quad4>
			<quad4 id="62">65,71,70,64</quad4>
			<quad4 id="63">71,77,76,70</quad4>
			<quad4 id="64">77,83,82,76</quad4>
			<quad4 id="65">83,89,88,82</quad4>
			<quad4 id="66">89,95,94,88</quad4>
			<quad4 id="67">95,101,100,94</quad4>
			<quad4 id="68">101,107,106,100</quad4>
			<quad4 id="69">107,113,112,106</quad4>
			<quad4 id="70">113,119,118,112</quad4>
			<quad4 id="71">119,125,124,118</quad4>
<!-- ... 4 like lines cut -->
			<tri3 id="76">1,6,5</tri3>
			<quad4 id="77">6,12,11,5</quad4>
			<quad4 id="78">12,18,17,11</quad4>
			<quad4 id="79">18,24,23,17</quad4>
			<quad4 id="80">24,30,29,23</quad4>
			<quad4 id="81">30,36,35,29</quad4>
			<quad4 id="82">36,42,41,35</quad4>
			<quad4 id="83">42,48,47,41</quad4>
			<quad4 id="84">48,54,53,47</quad4>
			<quad4 id="85">54,60,59,53</quad4>
			<quad4 id="86">60,66,65,59</quad4>
			<quad4 id="87">66,72,71,65</quad4>
			<quad4 id="88">72,78,77,71</quad4>
			<quad4 id="89">78,84,83,77</quad4>
			<quad4 id="90">84,90,89,83</quad4>
			<quad4 id="91">90,96,95,89</quad4>
			<quad4 id="92">96,102,101,95</quad4>
			<quad4 id="93">102,108,107,101</quad4>
			<quad4 id="94">108,114,113,107</quad4>
			<quad4 id="95">114,120,119,113</quad4>
			<quad4 id="96">120,126,125,119</quad4>
<!-- ... 4 like lines cut -->
			<tri3 id="101">1,7,6</tri3>
			<quad4 id="102">7,13,12,6</quad4>
			<quad4 id="103">13,19,18,12</quad4>
			<quad4 id="104">19,25,24,18</quad4>
			<quad4 id="105">25,31,30,24</quad4>
			<quad4 id="106">31,37,36,30</quad4>
			<quad4 id="107">37,43,42,36</quad4>
			<quad4 id="108">43,49,48,42</quad4>
			<quad4 id="109">49,55,54,48</quad4>
			<quad4 id="110">55,61,60,54</quad4>
			<quad4 id="111">61,67,66,60</quad4>
			<quad4 id="112">67,73,72,66</quad4>
			<quad4 id="113">73,79,78,72</quad4>
			<quad4 id="114">79,85,84,78</quad4>
			<quad4 id="115">85,91,90,84</quad4>
			<quad4 id="116">91,97,96,90</quad4>
			<quad4 id="117">97,103,102,96</quad4>
			<quad4 id="118">103,109,108,102</quad4>
			<quad4 id="119">109,115,114,108</quad4>
			<quad4 id="120">115,121,120,114</quad4>
			<quad4 id="121">121,127,126,120</quad4>
<!-- ... 4 like lines cut -->
		</Surface>
		<SurfacePair name="SlidingElastic1">
			<primary>SlidingElastic1Primary</primary>
			<secondary>SlidingElastic1Secondary</secondary>
		</SurfacePair>
	</Mesh>
	<MeshDomains>
		<SolidDomain name="Part1" mat="Material1"/>
		<SolidDomain name="Part1__2" mat="Material1"/>
		<SolidDomain name="Part2" mat="top"/>
		<SolidDomain name="Part2__2" mat="top"/>
	</MeshDomains>
	<Boundary>
		<bc name="ZeroFluidPressure1" node_set="@surface:ZeroFluidPressure1" type="zero fluid pressure"/>
		<bc name="ZeroDisplacement2" node_set="@surface:ZeroDisplacement2" type="zero displacement">
			<x_dof>0</x_dof>
			<y_dof>0</y_dof>
			<z_dof>1</z_dof>
		</bc>
	</Boundary>
	<Rigid>
		<rigid_bc name="RigidConstraint2" type="rigid_fixed">
			<rb>top</rb>
			<Rx_dof>1</Rx_dof>
			<Ry_dof>1</Ry_dof>
			<Rz_dof>0</Rz_dof>
			<Ru_dof>1</Ru_dof>
			<Rv_dof>1</Rv_dof>
			<Rw_dof>1</Rw_dof>
		</rigid_bc>
		<rigid_load name="RigidLoad1" type="rigid_force">
			<rb>top</rb>
			<dof>Rz</dof>
			<value lc="2">-0.00034</value>
			<load_type>LOAD</load_type>
			<relative>0</relative>
		</rigid_load>
	</Rigid>
	<Contact>
		<contact name="SlidingElastic1" surface_pair="SlidingElastic1" type="sliding-elastic">
			<laugon>LAGMULT</laugon>
			<tolerance>0.1</tolerance>
			<gaptol>0</gaptol>
			<penalty>1000</penalty>
			<auto_penalty>1</auto_penalty>
			<update_penalty>0</update_penalty>
			<two_pass>0</two_pass>
			<knmult>1</knmult>
			<search_tol>0.01</search_tol>
			<symmetric_stiffness>0</symmetric_stiffness>
			<search_radius>1</search_radius>
			<seg_up>0</seg_up>
			<tension>0</tension>
			<minaug>0</minaug>
			<maxaug>10</maxaug>
			<node_reloc>0</node_reloc>
			<fric_coeff>0</fric_coeff>
			<smooth_aug>0</smooth_aug>
			<flip_primary>0</flip_primary>
			<flip_secondary>0</flip_secondary>
			<shell_bottom_primary>0</shell_bottom_primary>
			<shell_bottom_secondary>0</shell_bottom_secondary>
			<offset>0</offset>
		</contact>
	</Contact>
	<Constraints>
		<constraint name="SymmetryPlane1" surface="SymmetryPlane1" type="symmetry plane">
			<laugon>1</laugon>
			<tol>0.1</tol>
			<penalty>100</penalty>
			<rhs>0</rhs>
			<minaug>0</minaug>
			<maxaug>50</maxaug>
		</constraint>
		<constraint name="SymmetryPlane2" surface="SymmetryPlane2" type="symmetry plane">
			<laugon>1</laugon>
			<tol>0.1</tol>
			<penalty>100</penalty>
			<rhs>0</rhs>
			<minaug>0</minaug>
			<maxaug>50</maxaug>
		</constraint>
	</Constraints>
	<LoadData>
		<load_controller id="1" name="LC2" type="loadcurve">
			<interpolate>LINEAR</interpolate>
			<extend>CONSTANT</extend>
			<points>
				<pt>0,0.01</pt>
				<pt>0.5,0.1</pt>
				<pt>1,0.1</pt>
				<pt>1000000,50000</pt>
			</points>
		</load_controller>
		<load_controller id="2" name="LC2" type="loadcurve">
			<interpolate>LINEAR</interpolate>
			<extend>CONSTANT</extend>
			<points>
				<pt>0,1</pt>
				<pt>1,1</pt>
			</points>
		</load_controller>
	</LoadData>
	<Output>
		<plotfile type="febio">
			<var type="displacement"/>
			<var type="stress"/>
			<var type="relative volume"/>
			<var type="solid stress"/>
			<var type="effective fluid pressure"/>
			<var type="fluid pressure"/>
			<var type="fluid flux"/>
			<var type="contact pressure"/>
			<var type="contact gap"/>
			<var type="nodal fluid flux"/>
			<var type="nodal stress"/>
		</plotfile>
	</Output>
</febio_spec>
